      67
 i =        0, time =        0.000, E =      -507.3035290827
  O         4.3289798216        9.0622798216        2.0321094195
  O         4.3839998216        8.3173298216       -0.1285005805
  O        11.3823898216        9.0740198216       -0.1884705805
  O        11.3182798216        8.3239798216        1.9701194195
 Cu         2.3709798216        8.7034098216        2.2504894195
 Cu         2.4347698216        8.6922598216       15.5101494195
  C        10.7842498216        8.6931998216        0.8691094195
  C         9.2768898216        8.6740998216        0.8392094195
  C         4.9216798216        8.6681298216        0.9764894195
  C         6.4296498216        8.6378398216        1.0126194195
  C         8.4903598216        8.6362398216       -0.3420205805
  C         7.0877198216        8.6125698216       -0.2381605805
  C         7.2165698216        8.6491998216        2.1955994195
  C         8.6195598216        8.6656098216        2.0916094195
  N         2.3988098216        8.8212798216        4.3530994195
  C         2.6595098216        7.7249998216        5.1124494195
  C         2.6761098216        7.7587698216        6.5140494195
  C         2.4130998216        8.9986198216        7.1529494195
  C         2.1604998216       10.1432298216        6.3629194195
  C         2.1656498216       10.0058298216        4.9638894195
  N         2.3585198216        9.1998498216        8.5592294195
  N         2.6514398216        8.1573598216        9.2360994195
  C         2.5555798216        8.3567998216       10.6410694195
  C         2.0413998216        9.5266298216       11.2596194195
  C         2.0039098216        9.5650098216       12.6596794195
  N         2.4424798216        8.5393498216       13.4334094195
  C         2.9226998216        7.4211798216       12.8439494195
  C         2.9944798216        7.2808998216       11.4468994195
  H         2.8512898216        6.8002498216        4.5428494195
  H         2.8734198216        6.8584498216        7.1129794195
  H         1.9582298216       11.1101898216        6.8467894195
  H         1.9750198216       10.8534198216        4.2853594195
  H         1.6870698216       10.3674298216       10.6468094195
  H         1.6161098216       10.4354698216       13.2143794195
  H         3.2421898216        6.6255698216       13.5369794195
  H         3.3826998216        6.3650098216       10.9772394195
 Br         6.5098698216        8.5767498216        3.9652594195
  H         6.4637998216        8.5740298216       -1.1414605805
 Br         9.1982298216        8.5547598216       -2.1108405805
  H         9.2438498216        8.6646498216        2.9956894195
  O         2.1070998216        6.7129098216       15.8011894195
  O         2.7185398216        6.7302998216       18.0149894195
  O         2.0448198216       -0.2225901784       17.8840394195
  O         2.7731198216       -0.2121401784       15.7058094195
  C         2.3998798216        0.3345098216       16.7931494195
  C         2.4318798216        4.6625898216       16.8978894195
  C         1.1995398216        3.9780198216       16.8292794195
  C         1.1802098216        2.5707298216       16.7982094195
  C         2.3910098216        1.8413798216       16.8113194195
  C         3.6239998216        2.5261498216       16.8552894195
  C         3.6421598216        3.9334798216       16.9090894195
  H         0.2600898216        4.5490198216       16.7963194195
 Br        -0.4947901784        1.6610998216       16.6909894195
  H         4.5648098216        1.9562698216       16.8510894195
 Br         5.3178898216        4.8483098216       16.9465194195
  C         2.4232598216        6.1697398216       16.9097894195
  C         5.6960698216        5.4565598216        8.4284794195
  C         7.2232898216        5.4010698216        8.4354394195
  H         5.3538598216        6.4875698216        8.6593494195
  H         5.2774298216        4.7629198216        9.1889294195
  H         5.3052198216        5.1737198216        7.4276694195
 Br         7.8848298216        5.9403498216       10.1790594195
  H         7.6132198216        6.1127198216        7.6759694195
  C         7.7260898216        3.9976298216        8.1053994195
  H         7.3609298216        3.2659598216        8.8575794195
  H         8.8364198216        3.9862598216        8.1044294195
  H         7.3708098216        3.6893298216        7.0989094195
